9
Geometry from GAUSSIAN
    O    0.930726    1.443361   -0.000000
    C    0.268396    0.187517    0.000000
    C    1.047712   -0.972959    0.000000
    C   -1.105519    0.272372    0.000000
    C   -2.336770    0.326133    0.000000
    H    2.130046   -0.917020   -0.000000
    H    0.591670   -1.950319    0.000000
    H    1.868959    1.237774    0.000000
    H   -3.395217    0.373242   -0.000000
