9
Geometry from GAUSSIAN
    C    2.285829   -0.615145   -0.144394
    C   -1.124286    0.350772    0.233781
    O   -2.316827    0.567236   -0.055185
    C   -0.354486   -0.799558   -0.389970
    C    1.091624   -0.691825   -0.264194
    H    3.340892   -0.545552   -0.041820
    H   -0.624917    0.863338    1.071467
    H   -0.685995   -1.770000    0.057486
    H   -0.635874   -0.871377   -1.443487
