9
Geometry from GAUSSIAN
    O   -0.000001    0.000002    2.380381
    C    0.000000   -0.767348   -1.432081
    C    0.000000    0.767348   -1.432080
    C    0.000000   -0.000001   -0.170630
    C    0.000001   -0.000001    1.172439
    H    0.912768   -1.282700   -1.724504
    H   -0.912768   -1.282700   -1.724504
    H   -0.912768    1.282700   -1.724503
    H    0.912768    1.282700   -1.724503
