8
Geometry from GAUSSIAN
    C   -0.122937    0.201577    0.000000
    C   -1.048225    1.187399    0.000000
    C    0.293904    1.525528    0.000000
    H    1.106308    2.257068    0.000000
    C    0.293904   -1.392961    0.617350
    H    0.315196   -1.514282    1.701742
    C    0.293904   -1.392961   -0.617350
    H    0.315196   -1.514282   -1.701742
