9
Geometry from GAUSSIAN
    C    0.061864   -0.350741   -0.000001
    H    1.469120    1.382685    0.000006
    C    0.377239    1.067445   -0.000002
    C   -0.168971    2.198411   -0.000006
    H   -0.511803    3.234180    0.000003
    C   -0.168851   -1.502663   -0.684439
    H   -0.273454   -2.038341   -1.624575
    C   -0.168861   -1.502660    0.684438
    H   -0.273445   -2.038340    1.624575
