7
Geometry from GAUSSIAN
    C    1.205049   -0.422215    0.313801
    C    0.910372    0.778686    0.542126
    C   -0.452982   -0.076529   -0.182824
    C   -0.411248    1.257115    0.203092
    C   -1.328853    2.305432    0.164635
    C   -0.136948   -2.552078   -0.758627
    C    0.214610   -1.290411   -0.282203
