9
Geometry from GAUSSIAN
    O    0.969772    1.455299   -0.000000
    C    0.265168    0.296607    0.000000
    C    1.026181   -0.993039    0.000000
    C   -1.090803    0.339916    0.000000
    C   -2.320785    0.280362    0.000000
    H    2.105151   -0.984836    0.000000
    H    0.491717   -1.933221   -0.000000
    H    1.934444    1.280303   -0.000000
    H   -3.380844    0.258708   -0.000000
