9
Geometry from GAUSSIAN
    O    1.850993    0.648560    0.002318
    C   -0.614706   -0.034341   -0.000640
    C    0.810159    0.026606    0.000658
    C    0.080220   -1.187267   -0.001444
    C   -1.949126    0.596363   -0.000968
    H   -0.022024   -2.262403   -0.002836
    H   -2.061545    1.238346    0.879156
    H   -2.749760   -0.143395   -0.002373
    H   -2.060208    1.240235   -0.879875
