9
Geometry from GAUSSIAN
    C    2.211542   -0.381626   -0.000000
    C   -1.465144    0.272851    0.000002
    O   -1.789375   -0.944360   -0.000002
    C   -0.155098    0.831348    0.000001
    C    1.043676    0.193353   -0.000000
    H    2.749337   -0.659437   -0.918635
    H   -2.263783    1.048216   -0.000001
    H   -0.120240    1.919827    0.000001
    H    2.749338   -0.659433    0.918635
