7
Geometry from GAUSSIAN
    C    0.816127   -0.000161   -0.000009
    C   -0.336005    0.781375    0.000279
    C   -1.653477    0.000353    0.000375
    C   -0.334882   -0.782939   -0.000285
    C    2.233265    0.000939   -0.000138
    H   -2.231828   -0.000649    0.960520
    H   -2.232331    0.000205   -0.959463
