8
Geometry from GAUSSIAN
    C    0.008199    0.517379    0.000000
    C   -1.312141    0.142491    0.000000
    C    1.027360    1.425233    0.000000
    H    1.188376    2.492344    0.000000
    C    0.008199   -1.011916    0.642068
    H    0.186366   -1.429987    1.620763
    C    0.008199   -1.011916   -0.642068
    H    0.186366   -1.429987   -1.620763
