8
Geometry from GAUSSIAN
    C   -0.658110   -1.525038   -0.000000
    H   -1.575533   -2.087289    0.000000
    C   -0.000453   -0.241288   -0.000000
    C    0.654397   -1.526528   -0.000000
    H    1.570590   -2.090883    0.000000
    C    0.000887    1.099843   -0.000000
    C    0.002745    2.325198   -0.000000
    H    0.003557    3.385772    0.000000
